/*--------------------------------*- C++ -*----------------------------------*\
| =========                 |                                                 |
| \\      /  F ield         | foam-extend: Open Source CFD                    |
|  \\    /   O peration     | Version:     4.1                                |
|   \\  /    A nd           | Web:         http://www.foam-extend.org         |
|    \\/     M anipulation  |                                                 |
\*---------------------------------------------------------------------------*/
FoamFile
{
    version     2.0;
    format      ascii;
    class       volScalarField;
    location    "0";
    object      T1;
}
// * * * * * * * * * * * * * * * * * * * * * * * * * * * * * * * * * * * * * //

dimensions      [0 0 0 0 0 0 0];

internalField uniform 0.0;

boundaryField
{
   top
    {
        type            fixedValue;
        value           uniform 1;
    }

    bottom
    {
        type            fixedValue;
        p2 banana;
        value           uniform 1;
    }

    right
    {
        type            fixedValue;
        value           uniform 1;
    }

    left
    {
        type            fixedValue;
        value           uniform 1;
    }

    back
    {
        type            fixedValue;
        value           uniform 1;
    }

    frontAndBack
    {
        type            fixedValue;
        value           uniform 1;
    }

}
// ************************************************************************* //
