/*--------------------------------*- C++ -*----------------------------------*\
| =========                 |                                                 |
| \\      /  F ield         | OpenFOAM: The Open Source CFD Toolbox           |
|  \\    /   O peration     | Version:  v2012                                 |
|   \\  /    A nd           | Website:  www.openfoam.com                      |
|    \\/     M anipulation  |                                                 |
\*---------------------------------------------------------------------------*/
FoamFile
{
    version     2.0;
    format      ascii;
    class       fvSystem;
    location    "system";
    object      fvSystem;
}
// * * * * * * * * * * * * * * * * * * * * * * * * * * * * * * * * * * * * * //

file filetest
absNormResidual	1E-6;
relNormResidual	1E-3;
wSOR  1.2;
solverModel	SOR; // Jacobi, GaussSiedel, SOR
matrixFormat  lOLists; //lOLists // CSR
matrixType sparse; // sparse or full
// ************************************************************************* //
