/*--------------------------------*- C++ -*----------------------------------*\
| =========                 |                                                 |
| \\      /  F ield         | OpenFOAM: The Open Source CFD Toolbox           |
|  \\    /   O peration     | Version:  2206                                  |
|   \\  /    A nd           | Website:  www.openfoam.com                      |
|    \\/     M anipulation  |                                                 |
\*---------------------------------------------------------------------------*/
FoamFile
{
    version     2.0;
    format      ascii;
    arch        "LSB;label=32;scalar=64";
    class       polyBoundaryMesh;
    location    "constant/polyMesh";
    object      boundary;
}
// * * * * * * * * * * * * * * * * * * * * * * * * * * * * * * * * * * * * * //

5
(
    left
    {
        type            patch;
        nFaces          32;
        startFace       1984;
    }
    right
    {
        type            patch;
        nFaces          32;
        startFace       2016;
    }
    frontAndBack
    {
        type            empty;
        inGroups        1(empty);
        nFaces          2048;
        startFace       2048;
    }
    top
    {
        type            patch;
        nFaces          32;
        startFace       4096;
    }
    bottom
    {
        type            patch;
        nFaces          32;
        startFace       4128;
    }
)

// ************************************************************************* //
