/*--------------------------------*- C++ -*----------------------------------*\
| =========                 |                                                 |
| \\      /  F ield         | OpenFOAM: The Open Source CFD Toolbox           |
|  \\    /   O peration     | Version:  v2006                                 |
|   \\  /    A nd           | Website:  www.openfoam.com                      |
|    \\/     M anipulation  |                                                 |
\*---------------------------------------------------------------------------*/
FoamFile
{
    version     2.0;
    format      ascii;
    class       polyBoundaryMesh;
    location    "constant/polyMesh";
    object      boundary;
}
// * * * * * * * * * * * * * * * * * * * * * * * * * * * * * * * * * * * * * //

5
(
    top
    {
        type            patch;
        nFaces          10;
        startFace       180;
    }
    bottom
    {
        type            patch;
        nFaces          10;
        startFace       190;
    }
    frontAndBack
    {
        type            patch;
        nFaces          20;
        startFace       200;
    }
    left
    {
        type            patch;
        nFaces          100;
        startFace       220;
    }
    right
    {
        type            patch;
        nFaces          100;
        startFace       320;
    }
)

// ************************************************************************* //
