/*--------------------------------*- C++ -*----------------------------------*\
| =========                 |                                                 |
| \\      /  F ield         | OpenFOAM: The Open Source CFD Toolbox           |
|  \\    /   O peration     | Version:  v2012                                 |
|   \\  /    A nd           | Website:  www.openfoam.com                      |
|    \\/     M anipulation  |                                                 |
\*---------------------------------------------------------------------------*/
FoamFile
{
    version     2.0;
    format      ascii;
    class       polyBoundaryMesh;
    location    "constant/polyMesh";
    object      boundary;
}
// * * * * * * * * * * * * * * * * * * * * * * * * * * * * * * * * * * * * * //

5
(
    top
    {
        type            patch;
        nFaces          50;
        startFace       4900;
    }
    bottom
    {
        type            patch;
        nFaces          50;
        startFace       4950;
    }
    frontAndBack
    {
        type            patch;
        nFaces          100;
        startFace       5000;
    }
    left
    {
        type            patch;
        nFaces          2500;
        startFace       5100;
    }
    right
    {
        type            patch;
        nFaces          2500;
        startFace       7600;
    }
)

// ************************************************************************* //
